Circuit: * C:\Users\User\Documents\seslab_script\parametros de capacitores\mediciones cap_seslab.asc

.OP point found by inspection.

Date: Sat Sep 09 15:28:44 2017
Total elapsed time: 0.148 seconds.

tnom = 27
temp = 27
method = modified trap
totiter = 2114
traniter = 2114
tranpoints = 1058
accept = 1056
rejected = 2
matrix size = 15
fillins = 0
solver = Normal
Matrix Compiler1: 470 bytes object code size  1.9/1.8/[1.6]
Matrix Compiler2: 955 bytes object code size  1.6/3.1/[1.6]


